67307512
  -OEChem-05222502572D

 81 83  0     0  0  0  0  0  0999 V2000
   12.6774    5.1116    0.0000 Cl  0  0  0  0  0  0  0  0  0  0  0  0
    5.7331    2.0369    0.0000 O   0  0  0  0  0  0  0  0  0  0  0  0
   12.6543    7.1115    0.0000 O   0  0  0  0  0  0  0  0  0  0  0  0
    4.8671    2.5369    0.0000 O   0  0  0  0  0  0  0  0  0  0  0  0
    6.4241   15.3796    0.0000 O   0  0  0  0  0  0  0  0  0  0  0  0
    9.8882   13.3796    0.0000 O   0  0  0  0  0  0  0  0  0  0  0  0
    7.2901   13.8796    0.0000 O   0  0  0  0  0  0  0  0  0  0  0  0
    8.1561   13.3796    0.0000 O   0  0  0  0  0  0  0  0  0  0  0  0
    9.2135    5.0715    0.0000 N   0  0  0  0  0  0  0  0  0  0  0  0
    9.2251    2.0023    0.0000 N   0  0  0  0  0  0  0  0  0  0  0  0
    5.7331    4.0369    0.0000 N   0  0  0  0  0  0  0  0  0  0  0  0
    1.4030    3.5369    0.0000 N   0  0  0  0  0  0  0  0  0  0  0  0
   11.8594    4.5644    0.0000 N   0  0  0  0  0  0  0  0  0  0  0  0
   14.3747    8.1314    0.0000 N   0  0  0  0  0  0  0  0  0  0  0  0
    8.3312    3.5369    0.0000 C   0  0  0  0  0  0  0  0  0  0  0  0
    9.2251    4.0716    0.0000 C   0  0  0  0  0  0  0  0  0  0  0  0
    8.3312    2.5369    0.0000 C   0  0  0  0  0  0  0  0  0  0  0  0
    7.4651    4.0369    0.0000 C   0  0  0  0  0  0  0  0  0  0  0  0
    6.5991    3.5369    0.0000 C   0  0  0  0  0  0  0  0  0  0  0  0
    6.5991    2.5369    0.0000 C   0  0  0  0  0  0  0  0  0  0  0  0
    7.4651    2.0369    0.0000 C   0  0  0  0  0  0  0  0  0  0  0  0
   10.1312    3.5578    0.0000 C   0  0  0  0  0  0  0  0  0  0  0  0
   10.0737    5.5815    0.0000 C   0  0  0  0  0  0  0  0  0  0  0  0
   10.1312    2.5161    0.0000 C   0  0  0  0  0  0  0  0  0  0  0  0
   10.9455    5.0916    0.0000 C   0  0  0  0  0  0  0  0  0  0  0  0
   10.0622    6.5814    0.0000 C   0  0  0  0  0  0  0  0  0  0  0  0
    5.7331    1.0369    0.0000 C   0  0  0  0  0  0  0  0  0  0  0  0
    4.8671    3.5369    0.0000 C   0  0  0  0  0  0  0  0  0  0  0  0
   11.7941    6.6015    0.0000 C   0  0  0  0  0  0  0  0  0  0  0  0
   11.8057    5.6015    0.0000 C   0  0  0  0  0  0  0  0  0  0  0  0
   10.9224    7.0914    0.0000 C   0  0  0  0  0  0  0  0  0  0  0  0
   10.9953    4.0611    0.0000 C   0  0  0  0  0  0  0  0  0  0  0  0
    4.0010    4.0369    0.0000 C   0  0  0  0  0  0  0  0  0  0  0  0
    2.2690    4.0369    0.0000 C   0  0  0  0  0  0  0  0  0  0  0  0
    4.8671    0.5369    0.0000 C   0  0  0  0  0  0  0  0  0  0  0  0
    3.1350    3.5369    0.0000 C   0  0  0  0  0  0  0  0  0  0  0  0
   12.6427    8.1114    0.0000 C   0  0  0  0  0  0  0  0  0  0  0  0
    0.5369    4.0369    0.0000 C   0  0  0  0  0  0  0  0  0  0  0  0
    1.4030    2.5369    0.0000 C   0  0  0  0  0  0  0  0  0  0  0  0
   13.5029    8.6214    0.0000 C   0  0  0  0  0  0  0  0  0  0  0  0
   13.4913    9.6213    0.0000 C   0  0  0  0  0  0  0  0  0  0  0  0
   14.3515   10.1313    0.0000 C   0  0  0  0  0  0  0  0  0  0  0  0
   15.2348    8.6414    0.0000 C   0  0  0  0  0  0  0  0  0  0  0  0
   15.2233    9.6413    0.0000 C   0  0  0  0  0  0  0  0  0  0  0  0
    8.1561   15.3796    0.0000 C   0  0  0  0  0  0  0  0  0  0  0  0
    9.0222   14.8796    0.0000 C   0  0  0  0  0  0  0  0  0  0  0  0
    7.2901   14.8796    0.0000 C   0  0  0  0  0  0  0  0  0  0  0  0
    9.0222   13.8796    0.0000 C   0  0  0  0  0  0  0  0  0  0  0  0
    7.4651    4.6569    0.0000 H   0  0  0  0  0  0  0  0  0  0  0  0
    7.4651    1.4169    0.0000 H   0  0  0  0  0  0  0  0  0  0  0  0
    8.6731    5.3753    0.0000 H   0  0  0  0  0  0  0  0  0  0  0  0
   10.6669    2.2041    0.0000 H   0  0  0  0  0  0  0  0  0  0  0  0
    5.7331    4.6569    0.0000 H   0  0  0  0  0  0  0  0  0  0  0  0
   10.9526    4.4716    0.0000 H   0  0  0  0  0  0  0  0  0  0  0  0
    9.5217    6.8852    0.0000 H   0  0  0  0  0  0  0  0  0  0  0  0
    5.9451    0.4543    0.0000 H   0  0  0  0  0  0  0  0  0  0  0  0
    6.3437    1.1446    0.0000 H   0  0  0  0  0  0  0  0  0  0  0  0
   10.9152    7.7114    0.0000 H   0  0  0  0  0  0  0  0  0  0  0  0
    4.0010    4.6569    0.0000 H   0  0  0  0  0  0  0  0  0  0  0  0
    2.6675    4.5119    0.0000 H   0  0  0  0  0  0  0  0  0  0  0  0
    1.8705    4.5119    0.0000 H   0  0  0  0  0  0  0  0  0  0  0  0
    4.5571    1.0739    0.0000 H   0  0  0  0  0  0  0  0  0  0  0  0
    4.3301    0.2269    0.0000 H   0  0  0  0  0  0  0  0  0  0  0  0
    5.1771    0.0000    0.0000 H   0  0  0  0  0  0  0  0  0  0  0  0
    3.1350    2.9169    0.0000 H   0  0  0  0  0  0  0  0  0  0  0  0
   12.4239    8.6915    0.0000 H   0  0  0  0  0  0  0  0  0  0  0  0
   12.0334    7.9967    0.0000 H   0  0  0  0  0  0  0  0  0  0  0  0
    0.8469    4.5739    0.0000 H   0  0  0  0  0  0  0  0  0  0  0  0
    0.0000    4.3469    0.0000 H   0  0  0  0  0  0  0  0  0  0  0  0
    0.2269    3.5000    0.0000 H   0  0  0  0  0  0  0  0  0  0  0  0
    0.7830    2.5369    0.0000 H   0  0  0  0  0  0  0  0  0  0  0  0
    1.4030    1.9169    0.0000 H   0  0  0  0  0  0  0  0  0  0  0  0
    2.0230    2.5369    0.0000 H   0  0  0  0  0  0  0  0  0  0  0  0
   12.9509    9.9251    0.0000 H   0  0  0  0  0  0  0  0  0  0  0  0
   14.3444   10.7512    0.0000 H   0  0  0  0  0  0  0  0  0  0  0  0
   15.7753    8.3376    0.0000 H   0  0  0  0  0  0  0  0  0  0  0  0
   15.7566    9.9575    0.0000 H   0  0  0  0  0  0  0  0  0  0  0  0
    8.1561   15.9996    0.0000 H   0  0  0  0  0  0  0  0  0  0  0  0
    9.5591   15.1896    0.0000 H   0  0  0  0  0  0  0  0  0  0  0  0
    5.8872   15.0696    0.0000 H   0  0  0  0  0  0  0  0  0  0  0  0
    9.8882   12.7596    0.0000 H   0  0  0  0  0  0  0  0  0  0  0  0
  1 30  1  0  0  0  0
  2 20  1  0  0  0  0
  2 27  1  0  0  0  0
  3 29  1  0  0  0  0
  3 37  1  0  0  0  0
  4 28  2  0  0  0  0
  5 47  1  0  0  0  0
  5 80  1  0  0  0  0
  6 48  1  0  0  0  0
  6 81  1  0  0  0  0
  7 47  2  0  0  0  0
  8 48  2  0  0  0  0
  9 16  1  0  0  0  0
  9 23  1  0  0  0  0
  9 51  1  0  0  0  0
 10 17  1  0  0  0  0
 10 24  2  0  0  0  0
 11 19  1  0  0  0  0
 11 28  1  0  0  0  0
 11 53  1  0  0  0  0
 12 34  1  0  0  0  0
 12 38  1  0  0  0  0
 12 39  1  0  0  0  0
 13 32  3  0  0  0  0
 14 40  1  0  0  0  0
 14 43  2  0  0  0  0
 15 16  1  0  0  0  0
 15 17  1  0  0  0  0
 15 18  2  0  0  0  0
 16 22  2  0  0  0  0
 17 21  2  0  0  0  0
 18 19  1  0  0  0  0
 18 49  1  0  0  0  0
 19 20  2  0  0  0  0
 20 21  1  0  0  0  0
 21 50  1  0  0  0  0
 22 24  1  0  0  0  0
 22 32  1  0  0  0  0
 23 25  2  0  0  0  0
 23 26  1  0  0  0  0
 24 52  1  0  0  0  0
 25 30  1  0  0  0  0
 25 54  1  0  0  0  0
 26 31  2  0  0  0  0
 26 55  1  0  0  0  0
 27 35  1  0  0  0  0
 27 56  1  0  0  0  0
 27 57  1  0  0  0  0
 28 33  1  0  0  0  0
 29 30  2  0  0  0  0
 29 31  1  0  0  0  0
 31 58  1  0  0  0  0
 33 36  2  0  0  0  0
 33 59  1  0  0  0  0
 34 36  1  0  0  0  0
 34 60  1  0  0  0  0
 34 61  1  0  0  0  0
 35 62  1  0  0  0  0
 35 63  1  0  0  0  0
 35 64  1  0  0  0  0
 36 65  1  0  0  0  0
 37 40  1  0  0  0  0
 37 66  1  0  0  0  0
 37 67  1  0  0  0  0
 38 68  1  0  0  0  0
 38 69  1  0  0  0  0
 38 70  1  0  0  0  0
 39 71  1  0  0  0  0
 39 72  1  0  0  0  0
 39 73  1  0  0  0  0
 40 41  2  0  0  0  0
 41 42  1  0  0  0  0
 41 74  1  0  0  0  0
 42 44  2  0  0  0  0
 42 75  1  0  0  0  0
 43 44  1  0  0  0  0
 43 76  1  0  0  0  0
 44 77  1  0  0  0  0
 45 46  2  0  0  0  0
 45 47  1  0  0  0  0
 45 78  1  0  0  0  0
 46 48  1  0  0  0  0
 46 79  1  0  0  0  0
M  END
> <PUBCHEM_COMPOUND_CID>
67307512

> <PUBCHEM_COMPOUND_CANONICALIZED>
1

> <PUBCHEM_CACTVS_COMPLEXITY>
1000

> <PUBCHEM_CACTVS_HBOND_ACCEPTOR>
12

> <PUBCHEM_CACTVS_HBOND_DONOR>
4

> <PUBCHEM_CACTVS_ROTATABLE_BOND>
13

> <PUBCHEM_CACTVS_SUBSKEYS>
AAADcfB/uAAEAAAAAAAAAAAAAAAAAAAAAAA8eIEAAAAAAACx/AAAHgIQCAAADA7hniY+zvPIFgC4BzX3XASiiCAxJ2AI2CA/b9gOpuPF89uHPCjm1BnY+Y+w0OMOIECAQgICGABAgQCEBAQwAAAAAAAAAA==

> <PUBCHEM_IUPAC_OPENEYE_NAME>
(E)-N-[4-[3-chloro-4-(2-pyridylmethoxy)anilino]-3-cyano-7-ethoxy-6-quinolyl]-4-(dimethylamino)but-2-enamide;maleic acid

> <PUBCHEM_IUPAC_CAS_NAME>
(Z)-2-butenedioic acid;(E)-N-[4-[3-chloro-4-(2-pyridinylmethoxy)anilino]-3-cyano-7-ethoxy-6-quinolinyl]-4-(dimethylamino)-2-butenamide

> <PUBCHEM_IUPAC_NAME_MARKUP>
(<I>Z</I>)-but-2-enedioic acid;(<I>E</I>)-<I>N</I>-[4-[3-chloro-4-(pyridin-2-ylmethoxy)anilino]-3-cyano-7-ethoxyquinolin-6-yl]-4-(dimethylamino)but-2-enamide

> <PUBCHEM_IUPAC_NAME>
(Z)-but-2-enedioic acid;(E)-N-[4-[3-chloro-4-(pyridin-2-ylmethoxy)anilino]-3-cyano-7-ethoxyquinolin-6-yl]-4-(dimethylamino)but-2-enamide

> <PUBCHEM_IUPAC_SYSTEMATIC_NAME>
(Z)-but-2-enedioic acid;(E)-N-[4-[[3-chloranyl-4-(pyridin-2-ylmethoxy)phenyl]amino]-3-cyano-7-ethoxy-quinolin-6-yl]-4-(dimethylamino)but-2-enamide

> <PUBCHEM_IUPAC_TRADITIONAL_NAME>
(E)-N-[4-[3-chloro-4-(2-pyridylmethoxy)anilino]-3-cyano-7-ethoxy-6-quinolyl]-4-(dimethylamino)but-2-enamide;maleic acid

> <PUBCHEM_IUPAC_INCHI>
InChI=1S/C30H29ClN6O3.C4H4O4/c1-4-39-28-16-25-23(15-26(28)36-29(38)9-7-13-37(2)3)30(20(17-32)18-34-25)35-21-10-11-27(24(31)14-21)40-19-22-8-5-6-12-33-22;5-3(6)1-2-4(7)8/h5-12,14-16,18H,4,13,19H2,1-3H3,(H,34,35)(H,36,38);1-2H,(H,5,6)(H,7,8)/b9-7+;2-1-

> <PUBCHEM_IUPAC_INCHIKEY>
VXZCUHNJXSIJIM-MEBGWEOYSA-N

> <PUBCHEM_EXACT_MASS>
672.2099251

> <PUBCHEM_MOLECULAR_FORMULA>
C34H33ClN6O7

> <PUBCHEM_MOLECULAR_WEIGHT>
673.1

> <PUBCHEM_SMILES>
CCOC1=C(C=C2C(=C1)N=CC(=C2NC3=CC(=C(C=C3)OCC4=CC=CC=N4)Cl)C#N)NC(=O)/C=C/CN(C)C.C(=C\C(=O)O)\C(=O)O

> <PUBCHEM_OPENEYE_CAN_SMILES>
CCOC1=C(C=C2C(=C1)N=CC(=C2NC3=CC(=C(C=C3)OCC4=CC=CC=N4)Cl)C#N)NC(=O)C=CCN(C)C.C(=CC(=O)O)C(=O)O

> <PUBCHEM_OPENEYE_ISO_SMILES>
CCOC1=C(C=C2C(=C1)N=CC(=C2NC3=CC(=C(C=C3)OCC4=CC=CC=N4)Cl)C#N)NC(=O)/C=C/CN(C)C.C(=C\C(=O)O)\C(=O)O

> <PUBCHEM_CACTVS_TPSA>
187

> <PUBCHEM_MONOISOTOPIC_WEIGHT>
672.2099251

> <PUBCHEM_TOTAL_CHARGE>
0

> <PUBCHEM_HEAVY_ATOM_COUNT>
48

> <PUBCHEM_ATOM_DEF_STEREO_COUNT>
0

> <PUBCHEM_ATOM_UDEF_STEREO_COUNT>
0

> <PUBCHEM_BOND_DEF_STEREO_COUNT>
2

> <PUBCHEM_BOND_UDEF_STEREO_COUNT>
0

> <PUBCHEM_ISOTOPIC_ATOM_COUNT>
0

> <PUBCHEM_COMPONENT_COUNT>
2

> <PUBCHEM_CACTVS_TAUTO_COUNT>
-1

> <PUBCHEM_COORDINATE_TYPE>
1
5
255

> <PUBCHEM_BONDANNOTATIONS>
10  17  8
10  24  8
14  40  8
14  43  8
15  16  8
15  17  8
15  18  8
16  22  8
17  21  8
18  19  8
19  20  8
20  21  8
22  24  8
23  25  8
23  26  8
25  30  8
26  31  8
29  30  8
29  31  8
40  41  8
41  42  8
42  44  8
43  44  8

$$$$
